<?xml version="1.0" encoding="UTF-8"?>

<!-- generated on 2024-08-08 09:14:52 by Eclipse SUMO netconvert Version 1.20.0
<configuration xmlns:xsi="http://www.w3.org/2001/XMLSchema-instance" xsi:noNamespaceSchemaLocation="http://sumo.dlr.de/xsd/netconvertConfiguration.xsd">

    <input>
        <sumo-net-file value="9tls_3x3x3x3.net.xml"/>
    </input>

    <output>
        <plain-output-prefix value="plain"/>
    </output>

    <processing>
        <geometry.min-radius.fix.railways value="false"/>
        <geometry.max-grade.fix value="false"/>
        <offset.disable-normalization value="true"/>
        <lefthand value="0"/>
    </processing>

    <junctions>
        <no-turnarounds value="true"/>
        <junctions.corner-detail value="5"/>
        <junctions.limit-turn-speed value="5.50"/>
        <rectangular-lane-cut value="0"/>
    </junctions>

    <pedestrian>
        <walkingareas value="0"/>
    </pedestrian>

</configuration>
-->

<edges version="1.20" xmlns:xsi="http://www.w3.org/2001/XMLSchema-instance" xsi:noNamespaceSchemaLocation="http://sumo.dlr.de/xsd/edges_file.xsd">
    <edge id="-gneE0" from="gneJ1" to="gneJ0" priority="-1" numLanes="3" speed="13.89"/>
    <edge id="-gneE1" from="gneJ2" to="gneJ1" priority="-1" numLanes="3" speed="13.89"/>
    <edge id="-gneE10" from="gneJ11" to="gneJ10" priority="-1" numLanes="3" speed="13.89"/>
    <edge id="-gneE11" from="gneJ12" to="gneJ10" priority="-1" numLanes="3" speed="13.89"/>
    <edge id="-gneE12" from="gneJ13" to="gneJ10" priority="-1" numLanes="3" speed="13.89"/>
    <edge id="-gneE13" from="gneJ14" to="gneJ13" priority="-1" numLanes="3" speed="13.89"/>
    <edge id="-gneE14" from="gneJ15" to="gneJ13" priority="-1" numLanes="3" speed="13.89"/>
    <edge id="-gneE15" from="gneJ16" to="gneJ15" priority="-1" numLanes="3" speed="13.89"/>
    <edge id="-gneE16" from="gneJ17" to="gneJ15" priority="-1" numLanes="3" speed="13.89"/>
    <edge id="-gneE17" from="gneJ18" to="gneJ15" priority="-1" numLanes="3" speed="13.89"/>
    <edge id="-gneE18" from="gneJ19" to="gneJ18" priority="-1" numLanes="3" speed="13.89"/>
    <edge id="-gneE19" from="gneJ1" to="gneJ18" priority="-1" numLanes="3" speed="13.89"/>
    <edge id="-gneE2" from="gneJ3" to="gneJ1" priority="-1" numLanes="3" speed="13.89"/>
    <edge id="-gneE20" from="gneJ20" to="gneJ3" priority="-1" numLanes="3" speed="13.89"/>
    <edge id="-gneE21" from="gneJ18" to="gneJ20" priority="-1" numLanes="3" speed="13.89"/>
    <edge id="-gneE22" from="gneJ13" to="gneJ20" priority="-1" numLanes="3" speed="13.89"/>
    <edge id="-gneE23" from="gneJ8" to="gneJ20" priority="-1" numLanes="3" speed="13.89"/>
    <edge id="-gneE3" from="gneJ4" to="gneJ3" priority="-1" numLanes="3" speed="13.89"/>
    <edge id="-gneE4" from="gneJ5" to="gneJ3" priority="-1" numLanes="3" speed="13.89"/>
    <edge id="-gneE5" from="gneJ6" to="gneJ5" priority="-1" numLanes="3" speed="13.89"/>
    <edge id="-gneE6" from="gneJ7" to="gneJ5" priority="-1" numLanes="3" speed="13.89"/>
    <edge id="-gneE7" from="gneJ8" to="gneJ5" priority="-1" numLanes="3" speed="13.89"/>
    <edge id="-gneE8" from="gneJ9" to="gneJ8" priority="-1" numLanes="3" speed="13.89"/>
    <edge id="-gneE9" from="gneJ10" to="gneJ8" priority="-1" numLanes="3" speed="13.89"/>
    <edge id="gneE0" from="gneJ0" to="gneJ1" priority="-1" numLanes="3" speed="13.89"/>
    <edge id="gneE1" from="gneJ1" to="gneJ2" priority="-1" numLanes="3" speed="13.89"/>
    <edge id="gneE10" from="gneJ10" to="gneJ11" priority="-1" numLanes="3" speed="13.89"/>
    <edge id="gneE11" from="gneJ10" to="gneJ12" priority="-1" numLanes="3" speed="13.89"/>
    <edge id="gneE12" from="gneJ10" to="gneJ13" priority="-1" numLanes="3" speed="13.89"/>
    <edge id="gneE13" from="gneJ13" to="gneJ14" priority="-1" numLanes="3" speed="13.89"/>
    <edge id="gneE14" from="gneJ13" to="gneJ15" priority="-1" numLanes="3" speed="13.89"/>
    <edge id="gneE15" from="gneJ15" to="gneJ16" priority="-1" numLanes="3" speed="13.89"/>
    <edge id="gneE16" from="gneJ15" to="gneJ17" priority="-1" numLanes="3" speed="13.89"/>
    <edge id="gneE17" from="gneJ15" to="gneJ18" priority="-1" numLanes="3" speed="13.89"/>
    <edge id="gneE18" from="gneJ18" to="gneJ19" priority="-1" numLanes="3" speed="13.89"/>
    <edge id="gneE19" from="gneJ18" to="gneJ1" priority="-1" numLanes="3" speed="13.89"/>
    <edge id="gneE2" from="gneJ1" to="gneJ3" priority="-1" numLanes="3" speed="13.89"/>
    <edge id="gneE20" from="gneJ3" to="gneJ20" priority="-1" numLanes="3" speed="13.89"/>
    <edge id="gneE21" from="gneJ20" to="gneJ18" priority="-1" numLanes="3" speed="13.89"/>
    <edge id="gneE22" from="gneJ20" to="gneJ13" priority="-1" numLanes="3" speed="13.89"/>
    <edge id="gneE23" from="gneJ20" to="gneJ8" priority="-1" numLanes="3" speed="13.89"/>
    <edge id="gneE3" from="gneJ3" to="gneJ4" priority="-1" numLanes="3" speed="13.89"/>
    <edge id="gneE4" from="gneJ3" to="gneJ5" priority="-1" numLanes="3" speed="13.89"/>
    <edge id="gneE5" from="gneJ5" to="gneJ6" priority="-1" numLanes="3" speed="13.89"/>
    <edge id="gneE6" from="gneJ5" to="gneJ7" priority="-1" numLanes="3" speed="13.89"/>
    <edge id="gneE7" from="gneJ5" to="gneJ8" priority="-1" numLanes="3" speed="13.89"/>
    <edge id="gneE8" from="gneJ8" to="gneJ9" priority="-1" numLanes="3" speed="13.89"/>
    <edge id="gneE9" from="gneJ8" to="gneJ10" priority="-1" numLanes="3" speed="13.89"/>
</edges>
